scratch/acec/ACEC-Friendship-AUTOSYNTH.glm
clock {
timezone PST+8PDT;
stoptime '2000-01-02 00:00:00';
starttime '2000-01-01 00:00:00';
};

#set minimum_timestep=60;
#set profiler=1;
#set relax_naming_rules=1;
module generators;
module tape;
module climate;
module residential {
implicit_enduses NONE;
};

module powerflow {
solver_method FBS;
NR_iteration_limit 50;
};

object climate {
name Climate;
interpolate QUADRATIC;
tmyfile climate.tmy2;
};

object node {
phases ABCN;
name FRIENDSHIP;
bustype SWING;
nominal_voltage 7200.0;
};

object regulator {
configuration object regulator_configuration {
Control MANUAL;
raise_taps 16;
name REG27-CONFIG;
band_center 2401;
Type A;
tap_pos_B 1;
tap_pos_C 1;
time_delay 30.0;
connect_type 1;
regulation 0.10;
CT_phase ABC;
lower_taps 16;
tap_pos_A 1;
PT_phase ABC;
band_width 50;
};
phases ABC;
from FRIENDSHIP;
name REG27;
to node958175REG27;
};

object underground_line {
configuration object line_configuration {
spacing object line_spacing {
distance_AN 0.000000;
name 958175-LINESPACING;
distance_CN 0.000000;
distance_BN 0.000000;
distance_BC 0.500000;
distance_AB 0.500000;
distance_AC 1.000000;
};
conductor_A object underground_line_conductor {
conductor_gmr 0.008830;
conductor_resistance 1.540000;
shield_resistance 0.000000;
neutral_gmr 0.002080;
neutral_strands 6.000000;
conductor_diameter 0.292000;
name 958175-PHASEA;
outer_diameter 0.980000;
neutral_resistance 14.872000;
neutral_diameter 0.064000;
shield_gmr 0.000000;
};
conductor_B object underground_line_conductor {
conductor_gmr 0.008830;
conductor_resistance 1.540000;
shield_resistance 0.000000;
neutral_gmr 0.002080;
neutral_strands 6.000000;
conductor_diameter 0.292000;
name 958175-PHASEB;
outer_diameter 0.980000;
neutral_resistance 14.872000;
neutral_diameter 0.064000;
shield_gmr 0.000000;
};
name 958175-LINECONFIG;
conductor_C object underground_line_conductor {
conductor_gmr 0.008830;
conductor_resistance 1.540000;
shield_resistance 0.000000;
neutral_gmr 0.002080;
neutral_strands 6.000000;
conductor_diameter 0.292000;
name 958175-PHASEC;
outer_diameter 0.980000;
neutral_resistance 14.872000;
neutral_diameter 0.064000;
shield_gmr 0.000000;
};
};
phases ABC;
from node958175REG27;
name 958175;
to nodeRFRN1-R0001x1958175;
length 24;
};

object fuse {
phases ABCN;
from nodeRFRN1-R0001x1958175;
name RFRN1-R0001x1;
current_limit 9999.0 A;
to node958178RFRN1-R0001x1;
};

object underground_line {
configuration object line_configuration {
spacing object line_spacing {
distance_AN 0.000000;
name 958178-LINESPACING;
distance_CN 0.000000;
distance_BN 0.000000;
distance_BC 0.500000;
distance_AB 0.500000;
distance_AC 1.000000;
};
conductor_A object underground_line_conductor {
conductor_gmr 0.008830;
conductor_resistance 1.540000;
shield_resistance 0.000000;
neutral_gmr 0.002080;
neutral_strands 6.000000;
conductor_diameter 0.292000;
name 958178-PHASEA;
outer_diameter 0.980000;
neutral_resistance 14.872000;
neutral_diameter 0.064000;
shield_gmr 0.000000;
};
conductor_B object underground_line_conductor {
conductor_gmr 0.008830;
conductor_resistance 1.540000;
shield_resistance 0.000000;
neutral_gmr 0.002080;
neutral_strands 6.000000;
conductor_diameter 0.292000;
name 958178-PHASEB;
outer_diameter 0.980000;
neutral_resistance 14.872000;
neutral_diameter 0.064000;
shield_gmr 0.000000;
};
name 958178-LINECONFIG;
conductor_C object underground_line_conductor {
conductor_gmr 0.008830;
conductor_resistance 1.540000;
shield_resistance 0.000000;
neutral_gmr 0.002080;
neutral_strands 6.000000;
conductor_diameter 0.292000;
name 958178-PHASEC;
outer_diameter 0.980000;
neutral_resistance 14.872000;
neutral_diameter 0.064000;
shield_gmr 0.000000;
};
};
phases ABC;
from node958178RFRN1-R0001x1;
name 958178;
to node958179958178;
length 780;
};

object underground_line {
configuration object line_configuration {
spacing object line_spacing {
distance_AN 0.000000;
name 958179-LINESPACING;
distance_CN 0.000000;
distance_BN 0.000000;
distance_BC 0.500000;
distance_AB 0.500000;
distance_AC 1.000000;
};
conductor_A object underground_line_conductor {
conductor_gmr 0.008830;
conductor_resistance 1.540000;
shield_resistance 0.000000;
neutral_gmr 0.002080;
neutral_strands 6.000000;
conductor_diameter 0.292000;
name 958179-PHASEA;
outer_diameter 0.980000;
neutral_resistance 14.872000;
neutral_diameter 0.064000;
shield_gmr 0.000000;
};
conductor_B object underground_line_conductor {
conductor_gmr 0.008830;
conductor_resistance 1.540000;
shield_resistance 0.000000;
neutral_gmr 0.002080;
neutral_strands 6.000000;
conductor_diameter 0.292000;
name 958179-PHASEB;
outer_diameter 0.980000;
neutral_resistance 14.872000;
neutral_diameter 0.064000;
shield_gmr 0.000000;
};
name 958179-LINECONFIG;
conductor_C object underground_line_conductor {
conductor_gmr 0.008830;
conductor_resistance 1.540000;
shield_resistance 0.000000;
neutral_gmr 0.002080;
neutral_strands 6.000000;
conductor_diameter 0.292000;
name 958179-PHASEC;
outer_diameter 0.980000;
neutral_resistance 14.872000;
neutral_diameter 0.064000;
shield_gmr 0.000000;
};
};
phases ABC;
from node958179958178;
name 958179;
to node978195958179;
length 860;
};

object underground_line {
configuration object line_configuration {
spacing object line_spacing {
distance_AN 0.000000;
name 978195-LINESPACING;
distance_CN 0.000000;
distance_BN 0.000000;
distance_BC 0.500000;
distance_AB 0.500000;
distance_AC 1.000000;
};
conductor_A object underground_line_conductor {
conductor_gmr 0.008830;
conductor_resistance 1.540000;
shield_resistance 0.000000;
neutral_gmr 0.002080;
neutral_strands 6.000000;
conductor_diameter 0.292000;
name 978195-PHASEA;
outer_diameter 0.980000;
neutral_resistance 14.872000;
neutral_diameter 0.064000;
shield_gmr 0.000000;
};
conductor_B object underground_line_conductor {
conductor_gmr 0.008830;
conductor_resistance 1.540000;
shield_resistance 0.000000;
neutral_gmr 0.002080;
neutral_strands 6.000000;
conductor_diameter 0.292000;
name 978195-PHASEB;
outer_diameter 0.980000;
neutral_resistance 14.872000;
neutral_diameter 0.064000;
shield_gmr 0.000000;
};
name 978195-LINECONFIG;
conductor_C object underground_line_conductor {
conductor_gmr 0.008830;
conductor_resistance 1.540000;
shield_resistance 0.000000;
neutral_gmr 0.002080;
neutral_strands 6.000000;
conductor_diameter 0.292000;
name 978195-PHASEC;
outer_diameter 0.980000;
neutral_resistance 14.872000;
neutral_diameter 0.064000;
shield_gmr 0.000000;
};
};
phases ABC;
from node978195958179;
name 978195;
to node978172978195;
length 1970;
};

object underground_line {
configuration object line_configuration {
spacing object line_spacing {
distance_AN 0.000000;
name 978172-LINESPACING;
distance_CN 0.000000;
distance_BN 0.000000;
distance_BC 0.500000;
distance_AB 0.500000;
distance_AC 1.000000;
};
conductor_A object underground_line_conductor {
conductor_gmr 0.008830;
conductor_resistance 1.540000;
shield_resistance 0.000000;
neutral_gmr 0.002080;
neutral_strands 6.000000;
conductor_diameter 0.292000;
name 978172-PHASEA;
outer_diameter 0.980000;
neutral_resistance 14.872000;
neutral_diameter 0.064000;
shield_gmr 0.000000;
};
conductor_B object underground_line_conductor {
conductor_gmr 0.008830;
conductor_resistance 1.540000;
shield_resistance 0.000000;
neutral_gmr 0.002080;
neutral_strands 6.000000;
conductor_diameter 0.292000;
name 978172-PHASEB;
outer_diameter 0.980000;
neutral_resistance 14.872000;
neutral_diameter 0.064000;
shield_gmr 0.000000;
};
name 978172-LINECONFIG;
conductor_C object underground_line_conductor {
conductor_gmr 0.008830;
conductor_resistance 1.540000;
shield_resistance 0.000000;
neutral_gmr 0.002080;
neutral_strands 6.000000;
conductor_diameter 0.292000;
name 978172-PHASEC;
outer_diameter 0.980000;
neutral_resistance 14.872000;
neutral_diameter 0.064000;
shield_gmr 0.000000;
};
};
phases ABC;
from node978172978195;
name 978172;
to node978174978172;
length 780;
};

object underground_line {
configuration object line_configuration {
spacing object line_spacing {
distance_AN 0.000000;
name 978174-LINESPACING;
distance_CN 0.000000;
distance_BN 0.000000;
distance_BC 0.500000;
distance_AB 0.500000;
distance_AC 1.000000;
};
conductor_B object underground_line_conductor {
conductor_gmr 0.008830;
conductor_resistance 1.540000;
shield_resistance 0.000000;
neutral_gmr 0.002080;
neutral_strands 6.000000;
conductor_diameter 0.292000;
name 978174-PHASEB;
outer_diameter 0.980000;
neutral_resistance 14.872000;
neutral_diameter 0.064000;
shield_gmr 0.000000;
};
name 978174-LINECONFIG;
};
phases B;
from node978174978172;
name 978174;
to nodeF28653x1978174;
length 30;
};

object fuse {
phases BN;
from nodeF28653x1978174;
name F28653x1;
current_limit 9999.0 A;
to node978192F28653x1;
};

object underground_line {
configuration object line_configuration {
spacing object line_spacing {
distance_AN 0.000000;
name 978192-LINESPACING;
distance_CN 0.000000;
distance_BN 0.000000;
distance_BC 0.500000;
distance_AB 0.500000;
distance_AC 1.000000;
};
conductor_B object underground_line_conductor {
conductor_gmr 0.008830;
conductor_resistance 1.540000;
shield_resistance 0.000000;
neutral_gmr 0.002080;
neutral_strands 6.000000;
conductor_diameter 0.292000;
name 978192-PHASEB;
outer_diameter 0.980000;
neutral_resistance 14.872000;
neutral_diameter 0.064000;
shield_gmr 0.000000;
};
name 978192-LINECONFIG;
};
phases B;
from node978192F28653x1;
name 978192;
to node949317978192;
length 40;
};

object underground_line {
configuration object line_configuration {
spacing object line_spacing {
distance_AN 0.000000;
name 949317-LINESPACING;
distance_CN 0.000000;
distance_BN 0.000000;
distance_BC 0.500000;
distance_AB 0.500000;
distance_AC 1.000000;
};
conductor_B object underground_line_conductor {
conductor_gmr 0.008830;
conductor_resistance 1.540000;
shield_resistance 0.000000;
neutral_gmr 0.002080;
neutral_strands 6.000000;
conductor_diameter 0.292000;
name 949317-PHASEB;
outer_diameter 0.980000;
neutral_resistance 14.872000;
neutral_diameter 0.064000;
shield_gmr 0.000000;
};
name 949317-LINECONFIG;
};
phases B;
from node949317978192;
name 949317;
to node949318949317;
length 469;
};

object underground_line {
configuration object line_configuration {
spacing object line_spacing {
distance_AN 0.000000;
name 949318-LINESPACING;
distance_CN 0.000000;
distance_BN 0.000000;
distance_BC 0.500000;
distance_AB 0.500000;
distance_AC 1.000000;
};
conductor_B object underground_line_conductor {
conductor_gmr 0.008830;
conductor_resistance 1.540000;
shield_resistance 0.000000;
neutral_gmr 0.002080;
neutral_strands 6.000000;
conductor_diameter 0.292000;
name 949318-PHASEB;
outer_diameter 0.980000;
neutral_resistance 14.872000;
neutral_diameter 0.064000;
shield_gmr 0.000000;
};
name 949318-LINECONFIG;
};
phases B;
from node949318949317;
name 949318;
to nodeT14104949318;
length 519;
};

object underground_line {
configuration object line_configuration {
spacing object line_spacing {
distance_AN 0.000000;
name 949319-LINESPACING;
distance_CN 0.000000;
distance_BN 0.000000;
distance_BC 0.500000;
distance_AB 0.500000;
distance_AC 1.000000;
};
conductor_B object underground_line_conductor {
conductor_gmr 0.008830;
conductor_resistance 1.540000;
shield_resistance 0.000000;
neutral_gmr 0.002080;
neutral_strands 6.000000;
conductor_diameter 0.292000;
name 949319-PHASEB;
outer_diameter 0.980000;
neutral_resistance 14.872000;
neutral_diameter 0.064000;
shield_gmr 0.000000;
};
name 949319-LINECONFIG;
};
phases B;
from node949318949317;
name 949319;
to nodeT14100949319;
length 40;
};

object transformer {
configuration object transformer_configuration {
powerC_rating 50 kVA;
name T14100-CONFIG;
shunt_impedance 10000+10000j;
secondary_voltage 240.0;
connect_type SINGLE_PHASE_CENTER_TAPPED;
impedance 0.00033+0.0022j;
primary_voltage 7200.0;
powerB_rating 50 kVA;
powerA_rating 50 kVA;
};
phases BN;
from nodeT14100949319;
name T14100;
to nodeS1806-33-073T14100;
};

object load {
phases BN;
load_class R;
name S1806-33-073;
parent nodeS1806-33-073T14100;
constant_power_C 0;
constant_power_A 0;
nominal_voltage 120;
constant_power_B 1.60259;
};

object transformer {
configuration object transformer_configuration {
powerC_rating 50 kVA;
name T14102-CONFIG;
shunt_impedance 10000+10000j;
secondary_voltage 240.0;
connect_type SINGLE_PHASE_CENTER_TAPPED;
impedance 0.00033+0.0022j;
primary_voltage 7200.0;
powerB_rating 50 kVA;
powerA_rating 50 kVA;
};
phases BN;
from node949317978192;
name T14102;
to nodeS1806-32-065T14102;
};

object load {
phases BN;
load_class R;
name S1806-32-065;
parent nodeS1806-32-065T14102;
constant_power_C 0;
constant_power_A 0;
nominal_voltage 120;
constant_power_B 1.06969;
};

object load {
phases BN;
load_class R;
name S1806-33-042;
parent nodeS1806-32-065T14102;
constant_power_C 0;
constant_power_A 0;
nominal_voltage 120;
constant_power_B 0.776014;
};

object underground_line {
configuration object line_configuration {
spacing object line_spacing {
distance_AN 0.000000;
name 978200-LINESPACING;
distance_CN 0.000000;
distance_BN 0.000000;
distance_BC 0.500000;
distance_AB 0.500000;
distance_AC 1.000000;
};
name 978200-LINECONFIG;
conductor_C object underground_line_conductor {
conductor_gmr 0.008830;
conductor_resistance 1.540000;
shield_resistance 0.000000;
neutral_gmr 0.002080;
neutral_strands 6.000000;
conductor_diameter 0.292000;
name 978200-PHASEC;
outer_diameter 0.980000;
neutral_resistance 14.872000;
neutral_diameter 0.064000;
shield_gmr 0.000000;
};
};
phases C;
from node978174978172;
name 978200;
to nodeR2911x1978200;
length 314;
};

object fuse {
phases CN;
from nodeR2911x1978200;
name R2911x1;
current_limit 9999.0 A;
to node839461R2911x1;
};

object overhead_line {
configuration object line_configuration {
spacing object line_spacing {
distance_BC 7.0;
name 839461-LINESPACING;
distance_CN 5.0;
distance_AC 4.5;
distance_AN 4.272002;
distance_AB 2.5;
distance_BN 5.656854;
};
name 839461-LINECONFIG;
conductor_N object overhead_line_conductor {
resistance 2.57;
geometric_mean_radius 0.00437;
};
conductor_C object overhead_line_conductor {
resistance 2.57;
geometric_mean_radius 0.00437;
};
};
phases CN;
from node839461R2911x1;
name 839461;
to node839464839461;
length 60;
};

object overhead_line {
configuration object line_configuration {
spacing object line_spacing {
distance_BC 7.0;
name 839464-LINESPACING;
distance_CN 5.0;
distance_AC 4.5;
distance_AN 4.272002;
distance_AB 2.5;
distance_BN 5.656854;
};
name 839464-LINECONFIG;
conductor_N object overhead_line_conductor {
resistance 2.57;
geometric_mean_radius 0.00437;
};
conductor_C object overhead_line_conductor {
resistance 2.57;
geometric_mean_radius 0.00437;
};
};
phases CN;
from node839464839461;
name 839464;
to node839466839464;
length 111;
};

object overhead_line {
configuration object line_configuration {
spacing object line_spacing {
distance_BC 7.0;
name 839466-LINESPACING;
distance_CN 5.0;
distance_AC 4.5;
distance_AN 4.272002;
distance_AB 2.5;
distance_BN 5.656854;
};
name 839466-LINECONFIG;
conductor_N object overhead_line_conductor {
resistance 2.57;
geometric_mean_radius 0.00437;
};
conductor_C object overhead_line_conductor {
resistance 2.57;
geometric_mean_radius 0.00437;
};
};
phases CN;
from node839466839464;
name 839466;
to node839469839466;
length 207;
};

object overhead_line {
configuration object line_configuration {
spacing object line_spacing {
distance_BC 7.0;
name 839469-LINESPACING;
distance_CN 5.0;
distance_AC 4.5;
distance_AN 4.272002;
distance_AB 2.5;
distance_BN 5.656854;
};
name 839469-LINECONFIG;
conductor_N object overhead_line_conductor {
resistance 2.57;
geometric_mean_radius 0.00437;
};
conductor_C object overhead_line_conductor {
resistance 2.57;
geometric_mean_radius 0.00437;
};
};
phases CN;
from node839469839466;
name 839469;
to node839471839469;
length 226;
};

object overhead_line {
configuration object line_configuration {
spacing object line_spacing {
distance_BC 7.0;
name 839471-LINESPACING;
distance_CN 5.0;
distance_AC 4.5;
distance_AN 4.272002;
distance_AB 2.5;
distance_BN 5.656854;
};
name 839471-LINECONFIG;
conductor_N object overhead_line_conductor {
resistance 2.57;
geometric_mean_radius 0.00437;
};
conductor_C object overhead_line_conductor {
resistance 2.57;
geometric_mean_radius 0.00437;
};
};
phases CN;
from node839471839469;
name 839471;
to node956777839471;
length 120;
};

object overhead_line {
configuration object line_configuration {
spacing object line_spacing {
distance_BC 7.0;
name 956777-LINESPACING;
distance_CN 5.0;
distance_AC 4.5;
distance_AN 4.272002;
distance_AB 2.5;
distance_BN 5.656854;
};
name 956777-LINECONFIG;
conductor_N object overhead_line_conductor {
resistance 2.57;
geometric_mean_radius 0.00437;
};
conductor_C object overhead_line_conductor {
resistance 2.57;
geometric_mean_radius 0.00437;
};
};
phases CN;
from node956777839471;
name 956777;
to node839473956777;
length 130;
};

object overhead_line {
configuration object line_configuration {
spacing object line_spacing {
distance_BC 7.0;
name 839473-LINESPACING;
distance_CN 5.0;
distance_AC 4.5;
distance_AN 4.272002;
distance_AB 2.5;
distance_BN 5.656854;
};
name 839473-LINECONFIG;
conductor_N object overhead_line_conductor {
resistance 2.57;
geometric_mean_radius 0.00437;
};
conductor_C object overhead_line_conductor {
resistance 2.57;
geometric_mean_radius 0.00437;
};
};
phases CN;
from node839473956777;
name 839473;
to node839475839473;
length 226;
};

object overhead_line {
configuration object line_configuration {
spacing object line_spacing {
distance_BC 7.0;
name 839475-LINESPACING;
distance_CN 5.0;
distance_AC 4.5;
distance_AN 4.272002;
distance_AB 2.5;
distance_BN 5.656854;
};
name 839475-LINECONFIG;
conductor_N object overhead_line_conductor {
resistance 2.57;
geometric_mean_radius 0.00437;
};
conductor_C object overhead_line_conductor {
resistance 2.57;
geometric_mean_radius 0.00437;
};
};
phases CN;
from node839475839473;
name 839475;
to node839477839475;
length 262;
};

object overhead_line {
configuration object line_configuration {
spacing object line_spacing {
distance_BC 7.0;
name 839477-LINESPACING;
distance_CN 5.0;
distance_AC 4.5;
distance_AN 4.272002;
distance_AB 2.5;
distance_BN 5.656854;
};
name 839477-LINECONFIG;
conductor_N object overhead_line_conductor {
resistance 2.57;
geometric_mean_radius 0.00437;
};
conductor_C object overhead_line_conductor {
resistance 2.57;
geometric_mean_radius 0.00437;
};
};
phases CN;
from node839477839475;
name 839477;
to node839479839477;
length 81;
};

object overhead_line {
configuration object line_configuration {
spacing object line_spacing {
distance_BC 7.0;
name 839479-LINESPACING;
distance_CN 5.0;
distance_AC 4.5;
distance_AN 4.272002;
distance_AB 2.5;
distance_BN 5.656854;
};
name 839479-LINECONFIG;
conductor_N object overhead_line_conductor {
resistance 2.57;
geometric_mean_radius 0.00437;
};
conductor_C object overhead_line_conductor {
resistance 2.57;
geometric_mean_radius 0.00437;
};
};
phases CN;
from node839479839477;
name 839479;
to node839481839479;
length 243;
};

object overhead_line {
configuration object line_configuration {
spacing object line_spacing {
distance_BC 7.0;
name 839481-LINESPACING;
distance_CN 5.0;
distance_AC 4.5;
distance_AN 4.272002;
distance_AB 2.5;
distance_BN 5.656854;
};
name 839481-LINECONFIG;
conductor_N object overhead_line_conductor {
resistance 2.57;
geometric_mean_radius 0.00437;
};
conductor_C object overhead_line_conductor {
resistance 2.57;
geometric_mean_radius 0.00437;
};
};
phases CN;
from node839481839479;
name 839481;
to node839483839481;
length 183;
};

object overhead_line {
configuration object line_configuration {
spacing object line_spacing {
distance_BC 7.0;
name 839483-LINESPACING;
distance_CN 5.0;
distance_AC 4.5;
distance_AN 4.272002;
distance_AB 2.5;
distance_BN 5.656854;
};
name 839483-LINECONFIG;
conductor_N object overhead_line_conductor {
resistance 2.57;
geometric_mean_radius 0.00437;
};
conductor_C object overhead_line_conductor {
resistance 2.57;
geometric_mean_radius 0.00437;
};
};
phases CN;
from node839483839481;
name 839483;
to node839484839483;
length 98;
};

object overhead_line {
configuration object line_configuration {
spacing object line_spacing {
distance_BC 7.0;
name 839484-LINESPACING;
distance_CN 5.0;
distance_AC 4.5;
distance_AN 4.272002;
distance_AB 2.5;
distance_BN 5.656854;
};
name 839484-LINECONFIG;
conductor_N object overhead_line_conductor {
resistance 2.57;
geometric_mean_radius 0.00437;
};
conductor_C object overhead_line_conductor {
resistance 2.57;
geometric_mean_radius 0.00437;
};
};
phases CN;
from node839484839483;
name 839484;
to node839486839484;
length 8;
};

object overhead_line {
configuration object line_configuration {
spacing object line_spacing {
distance_BC 7.0;
name 839486-LINESPACING;
distance_CN 5.0;
distance_AC 4.5;
distance_AN 4.272002;
distance_AB 2.5;
distance_BN 5.656854;
};
name 839486-LINECONFIG;
conductor_N object overhead_line_conductor {
resistance 2.57;
geometric_mean_radius 0.00437;
};
conductor_C object overhead_line_conductor {
resistance 2.57;
geometric_mean_radius 0.00437;
};
};
phases CN;
from node839486839484;
name 839486;
to node839488839486;
length 223;
};

object overhead_line {
configuration object line_configuration {
spacing object line_spacing {
distance_BC 7.0;
name 839488-LINESPACING;
distance_CN 5.0;
distance_AC 4.5;
distance_AN 4.272002;
distance_AB 2.5;
distance_BN 5.656854;
};
name 839488-LINECONFIG;
conductor_N object overhead_line_conductor {
resistance 2.57;
geometric_mean_radius 0.00437;
};
conductor_C object overhead_line_conductor {
resistance 2.57;
geometric_mean_radius 0.00437;
};
};
phases CN;
from node839488839486;
name 839488;
to node839490839488;
length 219;
};

object overhead_line {
configuration object line_configuration {
spacing object line_spacing {
distance_BC 7.0;
name 839490-LINESPACING;
distance_CN 5.0;
distance_AC 4.5;
distance_AN 4.272002;
distance_AB 2.5;
distance_BN 5.656854;
};
name 839490-LINECONFIG;
conductor_N object overhead_line_conductor {
resistance 2.57;
geometric_mean_radius 0.00437;
};
conductor_C object overhead_line_conductor {
resistance 2.57;
geometric_mean_radius 0.00437;
};
};
phases CN;
from node839490839488;
name 839490;
to node839491839490;
length 178;
};

object overhead_line {
configuration object line_configuration {
spacing object line_spacing {
distance_BC 7.0;
name 839491-LINESPACING;
distance_CN 5.0;
distance_AC 4.5;
distance_AN 4.272002;
distance_AB 2.5;
distance_BN 5.656854;
};
name 839491-LINECONFIG;
conductor_N object overhead_line_conductor {
resistance 2.57;
geometric_mean_radius 0.00437;
};
conductor_C object overhead_line_conductor {
resistance 2.57;
geometric_mean_radius 0.00437;
};
};
phases CN;
from node839491839490;
name 839491;
to node974130839491;
length 135;
};

object overhead_line {
configuration object line_configuration {
spacing object line_spacing {
distance_BC 7.0;
name 974130-LINESPACING;
distance_CN 5.0;
distance_AC 4.5;
distance_AN 4.272002;
distance_AB 2.5;
distance_BN 5.656854;
};
name 974130-LINECONFIG;
conductor_N object overhead_line_conductor {
resistance 2.57;
geometric_mean_radius 0.00437;
};
conductor_C object overhead_line_conductor {
resistance 2.57;
geometric_mean_radius 0.00437;
};
};
phases CN;
from node974130839491;
name 974130;
to node839493974130;
length 120;
};

object overhead_line {
configuration object line_configuration {
spacing object line_spacing {
distance_BC 7.0;
name 839493-LINESPACING;
distance_CN 5.0;
distance_AC 4.5;
distance_AN 4.272002;
distance_AB 2.5;
distance_BN 5.656854;
};
name 839493-LINECONFIG;
conductor_N object overhead_line_conductor {
resistance 2.57;
geometric_mean_radius 0.00437;
};
conductor_C object overhead_line_conductor {
resistance 2.57;
geometric_mean_radius 0.00437;
};
};
phases CN;
from node839493974130;
name 839493;
to node839496839493;
length 261;
};

object overhead_line {
configuration object line_configuration {
spacing object line_spacing {
distance_BC 7.0;
name 839496-LINESPACING;
distance_CN 5.0;
distance_AC 4.5;
distance_AN 4.272002;
distance_AB 2.5;
distance_BN 5.656854;
};
name 839496-LINECONFIG;
conductor_N object overhead_line_conductor {
resistance 2.57;
geometric_mean_radius 0.00437;
};
conductor_C object overhead_line_conductor {
resistance 2.57;
geometric_mean_radius 0.00437;
};
};
phases CN;
from node839496839493;
name 839496;
to node839497839496;
length 56;
};

object overhead_line {
configuration object line_configuration {
spacing object line_spacing {
distance_BC 7.0;
name 839497-LINESPACING;
distance_CN 5.0;
distance_AC 4.5;
distance_AN 4.272002;
distance_AB 2.5;
distance_BN 5.656854;
};
name 839497-LINECONFIG;
conductor_N object overhead_line_conductor {
resistance 2.57;
geometric_mean_radius 0.00437;
};
conductor_C object overhead_line_conductor {
resistance 2.57;
geometric_mean_radius 0.00437;
};
};
phases CN;
from node839497839496;
name 839497;
to node839499839497;
length 191;
};

object overhead_line {
configuration object line_configuration {
spacing object line_spacing {
distance_BC 7.0;
name 839499-LINESPACING;
distance_CN 5.0;
distance_AC 4.5;
distance_AN 4.272002;
distance_AB 2.5;
distance_BN 5.656854;
};
name 839499-LINECONFIG;
conductor_N object overhead_line_conductor {
resistance 2.57;
geometric_mean_radius 0.00437;
};
conductor_C object overhead_line_conductor {
resistance 2.57;
geometric_mean_radius 0.00437;
};
};
phases CN;
from node839499839497;
name 839499;
to node839502839499;
length 223;
};

object overhead_line {
configuration object line_configuration {
spacing object line_spacing {
distance_BC 7.0;
name 839502-LINESPACING;
distance_CN 5.0;
distance_AC 4.5;
distance_AN 4.272002;
distance_AB 2.5;
distance_BN 5.656854;
};
name 839502-LINECONFIG;
conductor_N object overhead_line_conductor {
resistance 2.57;
geometric_mean_radius 0.00437;
};
conductor_C object overhead_line_conductor {
resistance 2.57;
geometric_mean_radius 0.00437;
};
};
phases CN;
from node839502839499;
name 839502;
to node839503839502;
length 91;
};

object overhead_line {
configuration object line_configuration {
spacing object line_spacing {
distance_BC 7.0;
name 839503-LINESPACING;
distance_CN 5.0;
distance_AC 4.5;
distance_AN 4.272002;
distance_AB 2.5;
distance_BN 5.656854;
};
name 839503-LINECONFIG;
conductor_N object overhead_line_conductor {
resistance 2.57;
geometric_mean_radius 0.00437;
};
conductor_C object overhead_line_conductor {
resistance 2.57;
geometric_mean_radius 0.00437;
};
};
phases CN;
from node839503839502;
name 839503;
to node839505839503;
length 134;
};

object underground_line {
configuration object line_configuration {
spacing object line_spacing {
distance_AN 0.000000;
name 839505-LINESPACING;
distance_CN 0.000000;
distance_BN 0.000000;
distance_BC 0.500000;
distance_AB 0.500000;
distance_AC 1.000000;
};
name 839505-LINECONFIG;
conductor_C object underground_line_conductor {
conductor_gmr 0.008830;
conductor_resistance 1.540000;
shield_resistance 0.000000;
neutral_gmr 0.002080;
neutral_strands 6.000000;
conductor_diameter 0.292000;
name 839505-PHASEC;
outer_diameter 0.980000;
neutral_resistance 14.872000;
neutral_diameter 0.064000;
shield_gmr 0.000000;
};
};
phases C;
from node839505839503;
name 839505;
to nodeFFRN1-F008x1839505;
length 18;
};

object fuse {
phases CN;
from nodeFFRN1-F008x1839505;
name FFRN1-F008x1;
current_limit 9999.0 A;
to node839506FFRN1-F008x1;
};

object underground_line {
configuration object line_configuration {
spacing object line_spacing {
distance_AN 0.000000;
name 839506-LINESPACING;
distance_CN 0.000000;
distance_BN 0.000000;
distance_BC 0.500000;
distance_AB 0.500000;
distance_AC 1.000000;
};
name 839506-LINECONFIG;
conductor_C object underground_line_conductor {
conductor_gmr 0.008830;
conductor_resistance 1.540000;
shield_resistance 0.000000;
neutral_gmr 0.002080;
neutral_strands 6.000000;
conductor_diameter 0.292000;
name 839506-PHASEC;
outer_diameter 0.980000;
neutral_resistance 14.872000;
neutral_diameter 0.064000;
shield_gmr 0.000000;
};
};
phases C;
from node839506FFRN1-F008x1;
name 839506;
to node839509839506;
length 65;
};

object underground_line {
configuration object line_configuration {
spacing object line_spacing {
distance_AN 0.000000;
name 839509-LINESPACING;
distance_CN 0.000000;
distance_BN 0.000000;
distance_BC 0.500000;
distance_AB 0.500000;
distance_AC 1.000000;
};
name 839509-LINECONFIG;
conductor_C object underground_line_conductor {
conductor_gmr 0.008830;
conductor_resistance 1.540000;
shield_resistance 0.000000;
neutral_gmr 0.002080;
neutral_strands 6.000000;
conductor_diameter 0.292000;
name 839509-PHASEC;
outer_diameter 0.980000;
neutral_resistance 14.872000;
neutral_diameter 0.064000;
shield_gmr 0.000000;
};
};
phases C;
from node839509839506;
name 839509;
to node839511839509;
length 136;
};

object underground_line {
configuration object line_configuration {
spacing object line_spacing {
distance_AN 0.000000;
name 839511-LINESPACING;
distance_CN 0.000000;
distance_BN 0.000000;
distance_BC 0.500000;
distance_AB 0.500000;
distance_AC 1.000000;
};
name 839511-LINECONFIG;
conductor_C object underground_line_conductor {
conductor_gmr 0.008830;
conductor_resistance 1.540000;
shield_resistance 0.000000;
neutral_gmr 0.002080;
neutral_strands 6.000000;
conductor_diameter 0.292000;
name 839511-PHASEC;
outer_diameter 0.980000;
neutral_resistance 14.872000;
neutral_diameter 0.064000;
shield_gmr 0.000000;
};
};
phases C;
from node839511839509;
name 839511;
to node839512839511;
length 53;
};

object underground_line {
configuration object line_configuration {
spacing object line_spacing {
distance_AN 0.000000;
name 839512-LINESPACING;
distance_CN 0.000000;
distance_BN 0.000000;
distance_BC 0.500000;
distance_AB 0.500000;
distance_AC 1.000000;
};
name 839512-LINECONFIG;
conductor_C object underground_line_conductor {
conductor_gmr 0.008830;
conductor_resistance 1.540000;
shield_resistance 0.000000;
neutral_gmr 0.002080;
neutral_strands 6.000000;
conductor_diameter 0.292000;
name 839512-PHASEC;
outer_diameter 0.980000;
neutral_resistance 14.872000;
neutral_diameter 0.064000;
shield_gmr 0.000000;
};
};
phases C;
from node839512839511;
name 839512;
to node839514839512;
length 206;
};

object underground_line {
configuration object line_configuration {
spacing object line_spacing {
distance_AN 0.000000;
name 839514-LINESPACING;
distance_CN 0.000000;
distance_BN 0.000000;
distance_BC 0.500000;
distance_AB 0.500000;
distance_AC 1.000000;
};
name 839514-LINECONFIG;
conductor_C object underground_line_conductor {
conductor_gmr 0.008830;
conductor_resistance 1.540000;
shield_resistance 0.000000;
neutral_gmr 0.002080;
neutral_strands 6.000000;
conductor_diameter 0.292000;
name 839514-PHASEC;
outer_diameter 0.980000;
neutral_resistance 14.872000;
neutral_diameter 0.064000;
shield_gmr 0.000000;
};
};
phases C;
from node839514839512;
name 839514;
to node910237839514;
length 184;
};

object underground_line {
configuration object line_configuration {
spacing object line_spacing {
distance_AN 0.000000;
name 910237-LINESPACING;
distance_CN 0.000000;
distance_BN 0.000000;
distance_BC 0.500000;
distance_AB 0.500000;
distance_AC 1.000000;
};
name 910237-LINECONFIG;
conductor_C object underground_line_conductor {
conductor_gmr 0.008830;
conductor_resistance 1.540000;
shield_resistance 0.000000;
neutral_gmr 0.002080;
neutral_strands 6.000000;
conductor_diameter 0.292000;
name 910237-PHASEC;
outer_diameter 0.980000;
neutral_resistance 14.872000;
neutral_diameter 0.064000;
shield_gmr 0.000000;
};
};
phases C;
from node910237839514;
name 910237;
to node906381910237;
length 129;
};

object underground_line {
configuration object line_configuration {
spacing object line_spacing {
distance_AN 0.000000;
name 906381-LINESPACING;
distance_CN 0.000000;
distance_BN 0.000000;
distance_BC 0.500000;
distance_AB 0.500000;
distance_AC 1.000000;
};
name 906381-LINECONFIG;
conductor_C object underground_line_conductor {
conductor_gmr 0.008830;
conductor_resistance 1.540000;
shield_resistance 0.000000;
neutral_gmr 0.002080;
neutral_strands 6.000000;
conductor_diameter 0.292000;
name 906381-PHASEC;
outer_diameter 0.980000;
neutral_resistance 14.872000;
neutral_diameter 0.064000;
shield_gmr 0.000000;
};
};
phases C;
from node906381910237;
name 906381;
to node839516906381;
length 134;
};

object underground_line {
configuration object line_configuration {
spacing object line_spacing {
distance_AN 0.000000;
name 839516-LINESPACING;
distance_CN 0.000000;
distance_BN 0.000000;
distance_BC 0.500000;
distance_AB 0.500000;
distance_AC 1.000000;
};
name 839516-LINECONFIG;
conductor_C object underground_line_conductor {
conductor_gmr 0.008830;
conductor_resistance 1.540000;
shield_resistance 0.000000;
neutral_gmr 0.002080;
neutral_strands 6.000000;
conductor_diameter 0.292000;
name 839516-PHASEC;
outer_diameter 0.980000;
neutral_resistance 14.872000;
neutral_diameter 0.064000;
shield_gmr 0.000000;
};
};
phases C;
from node839516906381;
name 839516;
to node839517839516;
length 40;
};

object underground_line {
configuration object line_configuration {
spacing object line_spacing {
distance_AN 0.000000;
name 839517-LINESPACING;
distance_CN 0.000000;
distance_BN 0.000000;
distance_BC 0.500000;
distance_AB 0.500000;
distance_AC 1.000000;
};
name 839517-LINECONFIG;
conductor_C object underground_line_conductor {
conductor_gmr 0.008830;
conductor_resistance 1.540000;
shield_resistance 0.000000;
neutral_gmr 0.002080;
neutral_strands 6.000000;
conductor_diameter 0.292000;
name 839517-PHASEC;
outer_diameter 0.980000;
neutral_resistance 14.872000;
neutral_diameter 0.064000;
shield_gmr 0.000000;
};
};
phases C;
from node839517839516;
name 839517;
to node839519839517;
length 165;
};

object underground_line {
configuration object line_configuration {
spacing object line_spacing {
distance_AN 0.000000;
name 839519-LINESPACING;
distance_CN 0.000000;
distance_BN 0.000000;
distance_BC 0.500000;
distance_AB 0.500000;
distance_AC 1.000000;
};
name 839519-LINECONFIG;
conductor_C object underground_line_conductor {
conductor_gmr 0.008830;
conductor_resistance 1.540000;
shield_resistance 0.000000;
neutral_gmr 0.002080;
neutral_strands 6.000000;
conductor_diameter 0.292000;
name 839519-PHASEC;
outer_diameter 0.980000;
neutral_resistance 14.872000;
neutral_diameter 0.064000;
shield_gmr 0.000000;
};
};
phases C;
from node839519839517;
name 839519;
to node839521839519;
length 174;
};

object underground_line {
configuration object line_configuration {
spacing object line_spacing {
distance_AN 0.000000;
name 839521-LINESPACING;
distance_CN 0.000000;
distance_BN 0.000000;
distance_BC 0.500000;
distance_AB 0.500000;
distance_AC 1.000000;
};
name 839521-LINECONFIG;
conductor_C object underground_line_conductor {
conductor_gmr 0.008830;
conductor_resistance 1.540000;
shield_resistance 0.000000;
neutral_gmr 0.002080;
neutral_strands 6.000000;
conductor_diameter 0.292000;
name 839521-PHASEC;
outer_diameter 0.980000;
neutral_resistance 14.872000;
neutral_diameter 0.064000;
shield_gmr 0.000000;
};
};
phases C;
from node839521839519;
name 839521;
to node1806-0087839521;
length 331;
};

object transformer {
configuration object transformer_configuration {
powerC_rating 50 kVA;
name 1806-0087-CONFIG;
shunt_impedance 10000+10000j;
secondary_voltage 240.0;
connect_type SINGLE_PHASE_CENTER_TAPPED;
impedance 0.00033+0.0022j;
primary_voltage 7200.0;
powerB_rating 50 kVA;
powerA_rating 50 kVA;
};
phases CN;
from node1806-0087839521;
name 1806-0087;
to nodeS1806-33-0471806-0087;
};

object load {
phases CN;
load_class R;
name S1806-33-047;
parent nodeS1806-33-0471806-0087;
constant_power_C 4.65414;
constant_power_A 0;
nominal_voltage 120;
constant_power_B 0;
};

object load {
phases CN;
load_class R;
name S1806-33-059;
parent nodeS1806-33-0471806-0087;
constant_power_C 3.44247;
constant_power_A 0;
nominal_voltage 120;
constant_power_B 0;
};

object transformer {
configuration object transformer_configuration {
powerC_rating 50 kVA;
name 1806-0085-CONFIG;
shunt_impedance 10000+10000j;
secondary_voltage 240.0;
connect_type SINGLE_PHASE_CENTER_TAPPED;
impedance 0.00033+0.0022j;
primary_voltage 7200.0;
powerB_rating 50 kVA;
powerA_rating 50 kVA;
};
phases CN;
from node839521839519;
name 1806-0085;
to nodeS1806-33-0501806-0085;
};

object load {
phases CN;
load_class R;
name S1806-33-050;
parent nodeS1806-33-0501806-0085;
constant_power_C 2.82205;
constant_power_A 0;
nominal_voltage 120;
constant_power_B 0;
};

object transformer {
configuration object transformer_configuration {
powerC_rating 50 kVA;
name 1806-33-031-CONFIG;
shunt_impedance 10000+10000j;
secondary_voltage 240.0;
connect_type SINGLE_PHASE_CENTER_TAPPED;
impedance 0.00033+0.0022j;
primary_voltage 7200.0;
powerB_rating 50 kVA;
powerA_rating 50 kVA;
};
phases CN;
from node839519839517;
name 1806-33-031;
to nodeS1806-33-0321806-33-031;
};

object load {
phases CN;
load_class R;
name S1806-33-032;
parent nodeS1806-33-0321806-33-031;
constant_power_C 2.90762;
constant_power_A 0;
nominal_voltage 120;
constant_power_B 0;
};

object transformer {
configuration object transformer_configuration {
powerC_rating 50 kVA;
name 1806-33-030-CONFIG;
shunt_impedance 10000+10000j;
secondary_voltage 240.0;
connect_type SINGLE_PHASE_CENTER_TAPPED;
impedance 0.00033+0.0022j;
primary_voltage 7200.0;
powerB_rating 50 kVA;
powerA_rating 50 kVA;
};
phases CN;
from node839516906381;
name 1806-33-030;
to nodeS1806-33-0441806-33-030;
};

object load {
phases CN;
load_class R;
name S1806-33-044;
parent nodeS1806-33-0441806-33-030;
constant_power_C 0.702108;
constant_power_A 0;
nominal_voltage 120;
constant_power_B 0;
};

object underground_line {
configuration object line_configuration {
spacing object line_spacing {
distance_AN 0.000000;
name 906382-LINESPACING;
distance_CN 0.000000;
distance_BN 0.000000;
distance_BC 0.500000;
distance_AB 0.500000;
distance_AC 1.000000;
};
name 906382-LINECONFIG;
conductor_C object underground_line_conductor {
conductor_gmr 0.008830;
conductor_resistance 1.540000;
shield_resistance 0.000000;
neutral_gmr 0.002080;
neutral_strands 6.000000;
conductor_diameter 0.292000;
name 906382-PHASEC;
outer_diameter 0.980000;
neutral_resistance 14.872000;
neutral_diameter 0.064000;
shield_gmr 0.000000;
};
};
phases C;
from node906381910237;
name 906382;
to nodeT4303906382;
length 194;
};

object transformer {
configuration object transformer_configuration {
powerC_rating 50 kVA;
name T4303-CONFIG;
shunt_impedance 10000+10000j;
secondary_voltage 240.0;
connect_type SINGLE_PHASE_CENTER_TAPPED;
impedance 0.00033+0.0022j;
primary_voltage 7200.0;
powerB_rating 50 kVA;
powerA_rating 50 kVA;
};
phases CN;
from nodeT4303906382;
name T4303;
to nodeS1806-33-069T4303;
};

object load {
phases CN;
load_class R;
name S1806-33-069;
parent nodeS1806-33-069T4303;
constant_power_C 5.19287;
constant_power_A 0;
nominal_voltage 120;
constant_power_B 0;
};

object underground_line {
configuration object line_configuration {
spacing object line_spacing {
distance_AN 0.000000;
name 910238-LINESPACING;
distance_CN 0.000000;
distance_BN 0.000000;
distance_BC 0.500000;
distance_AB 0.500000;
distance_AC 1.000000;
};
name 910238-LINECONFIG;
conductor_C object underground_line_conductor {
conductor_gmr 0.008830;
conductor_resistance 1.540000;
shield_resistance 0.000000;
neutral_gmr 0.002080;
neutral_strands 6.000000;
conductor_diameter 0.292000;
name 910238-PHASEC;
outer_diameter 0.980000;
neutral_resistance 14.872000;
neutral_diameter 0.064000;
shield_gmr 0.000000;
};
};
phases C;
from node910237839514;
name 910238;
to nodeT4006910238;
length 204;
};

object transformer {
configuration object transformer_configuration {
powerC_rating 50 kVA;
name T4006-CONFIG;
shunt_impedance 10000+10000j;
secondary_voltage 240.0;
connect_type SINGLE_PHASE_CENTER_TAPPED;
impedance 0.00033+0.0022j;
primary_voltage 7200.0;
powerB_rating 50 kVA;
powerA_rating 50 kVA;
};
phases CN;
from nodeT4006910238;
name T4006;
to nodeS1806-33-068T4006;
};

object load {
phases CN;
load_class R;
name S1806-33-068;
parent nodeS1806-33-068T4006;
constant_power_C 0.705998;
constant_power_A 0;
nominal_voltage 120;
constant_power_B 0;
};

object underground_line {
configuration object line_configuration {
spacing object line_spacing {
distance_AN 0.000000;
name 970774-LINESPACING;
distance_CN 0.000000;
distance_BN 0.000000;
distance_BC 0.500000;
distance_AB 0.500000;
distance_AC 1.000000;
};
name 970774-LINECONFIG;
conductor_C object underground_line_conductor {
conductor_gmr 0.008830;
conductor_resistance 1.540000;
shield_resistance 0.000000;
neutral_gmr 0.002080;
neutral_strands 6.000000;
conductor_diameter 0.292000;
name 970774-PHASEC;
outer_diameter 0.980000;
neutral_resistance 14.872000;
neutral_diameter 0.064000;
shield_gmr 0.000000;
};
};
phases C;
from node839512839511;
name 970774;
to nodeT28678970774;
length 80;
};

object transformer {
configuration object transformer_configuration {
powerC_rating 50 kVA;
name T28678-CONFIG;
shunt_impedance 10000+10000j;
secondary_voltage 240.0;
connect_type SINGLE_PHASE_CENTER_TAPPED;
impedance 0.00033+0.0022j;
primary_voltage 7200.0;
powerB_rating 50 kVA;
powerA_rating 50 kVA;
};
phases CN;
from nodeT28678970774;
name T28678;
to nodeS1806-33-077T28678;
};

object load {
phases CN;
load_class R;
name S1806-33-077;
parent nodeS1806-33-077T28678;
constant_power_C 2.0402;
constant_power_A 0;
nominal_voltage 120;
constant_power_B 0;
};

object transformer {
configuration object transformer_configuration {
powerC_rating 50 kVA;
name 1806-33-025-CONFIG;
shunt_impedance 10000+10000j;
secondary_voltage 240.0;
connect_type SINGLE_PHASE_CENTER_TAPPED;
impedance 0.00033+0.0022j;
primary_voltage 7200.0;
powerB_rating 50 kVA;
powerA_rating 50 kVA;
};
phases CN;
from node839505839503;
name 1806-33-025;
to nodeS1806-33-0161806-33-025;
};

object load {
phases CN;
load_class R;
name S1806-33-016;
parent nodeS1806-33-0161806-33-025;
constant_power_C 0.525122;
constant_power_A 0;
nominal_voltage 120;
constant_power_B 0;
};

object load {
phases CN;
load_class R;
name S1806-33-023;
parent nodeS1806-33-0161806-33-025;
constant_power_C 1.01913;
constant_power_A 0;
nominal_voltage 120;
constant_power_B 0;
};

object load {
phases CN;
load_class R;
name S1806-33-026;
parent nodeS1806-33-0161806-33-025;
constant_power_C 0.0544571;
constant_power_A 0;
nominal_voltage 120;
constant_power_B 0;
};

object transformer {
configuration object transformer_configuration {
powerC_rating 50 kVA;
name 1806-33-024-CONFIG;
shunt_impedance 10000+10000j;
secondary_voltage 240.0;
connect_type SINGLE_PHASE_CENTER_TAPPED;
impedance 0.00033+0.0022j;
primary_voltage 7200.0;
powerB_rating 50 kVA;
powerA_rating 50 kVA;
};
phases CN;
from node839502839499;
name 1806-33-024;
to nodeS1806-33-0131806-33-024;
};

object load {
phases CN;
load_class R;
name S1806-33-013;
parent nodeS1806-33-0131806-33-024;
constant_power_C 0.108914;
constant_power_A 0;
nominal_voltage 120;
constant_power_B 0;
};

object load {
phases CN;
load_class R;
name S1806-33-031;
parent nodeS1806-33-0131806-33-024;
constant_power_C 0.529012;
constant_power_A 0;
nominal_voltage 120;
constant_power_B 0;
};

object load {
phases CN;
load_class R;
name S1806-33-037;
parent nodeS1806-33-0131806-33-024;
constant_power_C 0.490114;
constant_power_A 0;
nominal_voltage 120;
constant_power_B 0;
};

object load {
phases CN;
load_class R;
name S1806-33-038;
parent nodeS1806-33-0131806-33-024;
constant_power_C 0;
constant_power_A 0;
nominal_voltage 120;
constant_power_B 0;
};

object transformer {
configuration object transformer_configuration {
powerC_rating 50 kVA;
name 1806-33-022-CONFIG;
shunt_impedance 10000+10000j;
secondary_voltage 240.0;
connect_type SINGLE_PHASE_CENTER_TAPPED;
impedance 0.00033+0.0022j;
primary_voltage 7200.0;
powerB_rating 50 kVA;
powerA_rating 50 kVA;
};
phases CN;
from node839499839497;
name 1806-33-022;
to nodeS1806-33-0411806-33-022;
};

object load {
phases CN;
load_class R;
name S1806-33-041;
parent nodeS1806-33-0411806-33-022;
constant_power_C 0.532902;
constant_power_A 0;
nominal_voltage 120;
constant_power_B 0;
};

object transformer {
configuration object transformer_configuration {
powerC_rating 50 kVA;
name 1806-33-021-CONFIG;
shunt_impedance 10000+10000j;
secondary_voltage 240.0;
connect_type SINGLE_PHASE_CENTER_TAPPED;
impedance 0.00033+0.0022j;
primary_voltage 7200.0;
powerB_rating 50 kVA;
powerA_rating 50 kVA;
};
phases CN;
from node839496839493;
name 1806-33-021;
to nodeS1806-33-0291806-33-021;
};

object load {
phases CN;
load_class R;
name S1806-33-029;
parent nodeS1806-33-0291806-33-021;
constant_power_C 3.01653;
constant_power_A 0;
nominal_voltage 120;
constant_power_B 0;
};

object load {
phases CN;
load_class R;
name S1806-33-046;
parent nodeS1806-33-0291806-33-021;
constant_power_C 0;
constant_power_A 0;
nominal_voltage 120;
constant_power_B 0;
};

object transformer {
configuration object transformer_configuration {
powerC_rating 50 kVA;
name 1806-33-089-CONFIG;
shunt_impedance 10000+10000j;
secondary_voltage 240.0;
connect_type SINGLE_PHASE_CENTER_TAPPED;
impedance 0.00033+0.0022j;
primary_voltage 7200.0;
powerB_rating 50 kVA;
powerA_rating 50 kVA;
};
phases CN;
from node839493974130;
name 1806-33-089;
to nodeS1806-33-0561806-33-089;
};

object load {
phases CN;
load_class R;
name S1806-33-056;
parent nodeS1806-33-0561806-33-089;
constant_power_C 1.29141;
constant_power_A 0;
nominal_voltage 120;
constant_power_B 0;
};

object transformer {
configuration object transformer_configuration {
powerC_rating 50 kVA;
name 1806-33-020-CONFIG;
shunt_impedance 10000+10000j;
secondary_voltage 240.0;
connect_type SINGLE_PHASE_CENTER_TAPPED;
impedance 0.00033+0.0022j;
primary_voltage 7200.0;
powerB_rating 50 kVA;
powerA_rating 50 kVA;
};
phases CN;
from node839491839490;
name 1806-33-020;
to nodeS1806-33-0221806-33-020;
};

object load {
phases CN;
load_class R;
name S1806-33-022;
parent nodeS1806-33-0221806-33-020;
constant_power_C 0.423987;
constant_power_A 0;
nominal_voltage 120;
constant_power_B 0;
};

object load {
phases CN;
load_class R;
name S1806-33-045;
parent nodeS1806-33-0221806-33-020;
constant_power_C 0.2859;
constant_power_A 0;
nominal_voltage 120;
constant_power_B 0;
};

object load {
phases CN;
load_class R;
name S1806-33-067;
parent nodeS1806-33-0221806-33-020;
constant_power_C 0.291734;
constant_power_A 0;
nominal_voltage 120;
constant_power_B 0;
};

object transformer {
configuration object transformer_configuration {
powerC_rating 50 kVA;
name 1806-33-017-CONFIG;
shunt_impedance 10000+10000j;
secondary_voltage 240.0;
connect_type SINGLE_PHASE_CENTER_TAPPED;
impedance 0.00033+0.0022j;
primary_voltage 7200.0;
powerB_rating 50 kVA;
powerA_rating 50 kVA;
};
phases CN;
from node839488839486;
name 1806-33-017;
to nodeS1806-33-0151806-33-017;
};

object load {
phases CN;
load_class R;
name S1806-33-015;
parent nodeS1806-33-0151806-33-017;
constant_power_C 0.213939;
constant_power_A 0;
nominal_voltage 120;
constant_power_B 0;
};

object transformer {
configuration object transformer_configuration {
powerC_rating 50 kVA;
name 1806-33-015-CONFIG;
shunt_impedance 10000+10000j;
secondary_voltage 240.0;
connect_type SINGLE_PHASE_CENTER_TAPPED;
impedance 0.00033+0.0022j;
primary_voltage 7200.0;
powerB_rating 50 kVA;
powerA_rating 50 kVA;
};
phases CN;
from node839486839484;
name 1806-33-015;
to nodeS1806-33-0331806-33-015;
};

object load {
phases CN;
load_class R;
name S1806-33-033;
parent nodeS1806-33-0331806-33-015;
constant_power_C 1.05219;
constant_power_A 0;
nominal_voltage 120;
constant_power_B 0;
};

object transformer {
configuration object transformer_configuration {
powerC_rating 50 kVA;
name 1806-33-014-CONFIG;
shunt_impedance 10000+10000j;
secondary_voltage 240.0;
connect_type SINGLE_PHASE_CENTER_TAPPED;
impedance 0.00033+0.0022j;
primary_voltage 7200.0;
powerB_rating 50 kVA;
powerA_rating 50 kVA;
};
phases CN;
from node839483839481;
name 1806-33-014;
to nodeS1806-33-0431806-33-014;
};

object load {
phases CN;
load_class R;
name S1806-33-043;
parent nodeS1806-33-0431806-33-014;
constant_power_C 2.96402;
constant_power_A 0;
nominal_voltage 120;
constant_power_B 0;
};

object transformer {
configuration object transformer_configuration {
powerC_rating 50 kVA;
name 1806-33-013-CONFIG;
shunt_impedance 10000+10000j;
secondary_voltage 240.0;
connect_type SINGLE_PHASE_CENTER_TAPPED;
impedance 0.00033+0.0022j;
primary_voltage 7200.0;
powerB_rating 50 kVA;
powerA_rating 50 kVA;
};
phases CN;
from node839481839479;
name 1806-33-013;
to nodeS1806-33-0551806-33-013;
};

object load {
phases CN;
load_class R;
name S1806-33-055;
parent nodeS1806-33-0551806-33-013;
constant_power_C 1.21751;
constant_power_A 0;
nominal_voltage 120;
constant_power_B 0;
};

object transformer {
configuration object transformer_configuration {
powerC_rating 50 kVA;
name 1806-33-012-CONFIG;
shunt_impedance 10000+10000j;
secondary_voltage 240.0;
connect_type SINGLE_PHASE_CENTER_TAPPED;
impedance 0.00033+0.0022j;
primary_voltage 7200.0;
powerB_rating 50 kVA;
powerA_rating 50 kVA;
};
phases CN;
from node839479839477;
name 1806-33-012;
to nodeS1806-33-0201806-33-012;
};

object load {
phases CN;
load_class R;
name S1806-33-020;
parent nodeS1806-33-0201806-33-012;
constant_power_C 1.32058;
constant_power_A 0;
nominal_voltage 120;
constant_power_B 0;
};

object load {
phases CN;
load_class R;
name S1806-33-064;
parent nodeS1806-33-0201806-33-012;
constant_power_C 1.59676;
constant_power_A 0;
nominal_voltage 120;
constant_power_B 0;
};

object transformer {
configuration object transformer_configuration {
powerC_rating 50 kVA;
name 1806-33-010-CONFIG;
shunt_impedance 10000+10000j;
secondary_voltage 240.0;
connect_type SINGLE_PHASE_CENTER_TAPPED;
impedance 0.00033+0.0022j;
primary_voltage 7200.0;
powerB_rating 50 kVA;
powerA_rating 50 kVA;
};
phases CN;
from node839475839473;
name 1806-33-010;
to nodeS1806-33-0541806-33-010;
};

object load {
phases CN;
load_class R;
name S1806-33-054;
parent nodeS1806-33-0541806-33-010;
constant_power_C 1.98379;
constant_power_A 0;
nominal_voltage 120;
constant_power_B 0;
};

object transformer {
configuration object transformer_configuration {
powerC_rating 50 kVA;
name 1806-33-009-CONFIG;
shunt_impedance 10000+10000j;
secondary_voltage 240.0;
connect_type SINGLE_PHASE_CENTER_TAPPED;
impedance 0.00033+0.0022j;
primary_voltage 7200.0;
powerB_rating 50 kVA;
powerA_rating 50 kVA;
};
phases CN;
from node839473956777;
name 1806-33-009;
to nodeS1806-33-0581806-33-009;
};

object load {
phases CN;
load_class R;
name S1806-33-058;
parent nodeS1806-33-0581806-33-009;
constant_power_C 1.51896;
constant_power_A 0;
nominal_voltage 120;
constant_power_B 0;
};

object transformer {
configuration object transformer_configuration {
powerC_rating 50 kVA;
name 1806-33-081-CONFIG;
shunt_impedance 10000+10000j;
secondary_voltage 240.0;
connect_type SINGLE_PHASE_CENTER_TAPPED;
impedance 0.00033+0.0022j;
primary_voltage 7200.0;
powerB_rating 50 kVA;
powerA_rating 50 kVA;
};
phases CN;
from node956777839471;
name 1806-33-081;
to nodeS1806-33-0761806-33-081;
};

object load {
phases CN;
load_class R;
name S1806-33-076;
parent nodeS1806-33-0761806-33-081;
constant_power_C 0.943275;
constant_power_A 0;
nominal_voltage 120;
constant_power_B 0;
};

object transformer {
configuration object transformer_configuration {
powerC_rating 50 kVA;
name 1806-33-008-CONFIG;
shunt_impedance 10000+10000j;
secondary_voltage 240.0;
connect_type SINGLE_PHASE_CENTER_TAPPED;
impedance 0.00033+0.0022j;
primary_voltage 7200.0;
powerB_rating 50 kVA;
powerA_rating 50 kVA;
};
phases CN;
from node839471839469;
name 1806-33-008;
to nodeS1806-33-0651806-33-008;
};

object load {
phases CN;
load_class R;
name S1806-33-065;
parent nodeS1806-33-0651806-33-008;
constant_power_C 1.83404;
constant_power_A 0;
nominal_voltage 120;
constant_power_B 0;
};

object transformer {
configuration object transformer_configuration {
powerC_rating 50 kVA;
name 1806-33-007-CONFIG;
shunt_impedance 10000+10000j;
secondary_voltage 240.0;
connect_type SINGLE_PHASE_CENTER_TAPPED;
impedance 0.00033+0.0022j;
primary_voltage 7200.0;
powerB_rating 50 kVA;
powerA_rating 50 kVA;
};
phases CN;
from node839469839466;
name 1806-33-007;
to nodeS1806-33-0071806-33-007;
};

object load {
phases CN;
load_class R;
name S1806-33-007;
parent nodeS1806-33-0071806-33-007;
constant_power_C 2.76175;
constant_power_A 0;
nominal_voltage 120;
constant_power_B 0;
};

object load {
phases CN;
load_class R;
name S1806-33-009;
parent nodeS1806-33-0071806-33-007;
constant_power_C 0.466775;
constant_power_A 0;
nominal_voltage 120;
constant_power_B 0;
};

object transformer {
configuration object transformer_configuration {
powerC_rating 50 kVA;
name 1806-33-006-CONFIG;
shunt_impedance 10000+10000j;
secondary_voltage 240.0;
connect_type SINGLE_PHASE_CENTER_TAPPED;
impedance 0.00033+0.0022j;
primary_voltage 7200.0;
powerB_rating 50 kVA;
powerA_rating 50 kVA;
};
phases CN;
from node839466839464;
name 1806-33-006;
to nodeS1806-33-0101806-33-006;
};

object load {
phases CN;
load_class R;
name S1806-33-010;
parent nodeS1806-33-0101806-33-006;
constant_power_C 4.9342;
constant_power_A 0;
nominal_voltage 120;
constant_power_B 0;
};

object transformer {
configuration object transformer_configuration {
powerC_rating 50 kVA;
name 1806-33-005-CONFIG;
shunt_impedance 10000+10000j;
secondary_voltage 240.0;
connect_type SINGLE_PHASE_CENTER_TAPPED;
impedance 0.00033+0.0022j;
primary_voltage 7200.0;
powerB_rating 50 kVA;
powerA_rating 50 kVA;
};
phases CN;
from node839464839461;
name 1806-33-005;
to nodeS1806-33-0061806-33-005;
};

object load {
phases CN;
load_class R;
name S1806-33-006;
parent nodeS1806-33-0061806-33-005;
constant_power_C 2.77148;
constant_power_A 0;
nominal_voltage 120;
constant_power_B 0;
};

object underground_line {
configuration object line_configuration {
spacing object line_spacing {
distance_AN 0.000000;
name 978204-LINESPACING;
distance_CN 0.000000;
distance_BN 0.000000;
distance_BC 0.500000;
distance_AB 0.500000;
distance_AC 1.000000;
};
conductor_A object underground_line_conductor {
conductor_gmr 0.008830;
conductor_resistance 1.540000;
shield_resistance 0.000000;
neutral_gmr 0.002080;
neutral_strands 6.000000;
conductor_diameter 0.292000;
name 978204-PHASEA;
outer_diameter 0.980000;
neutral_resistance 14.872000;
neutral_diameter 0.064000;
shield_gmr 0.000000;
};
conductor_B object underground_line_conductor {
conductor_gmr 0.008830;
conductor_resistance 1.540000;
shield_resistance 0.000000;
neutral_gmr 0.002080;
neutral_strands 6.000000;
conductor_diameter 0.292000;
name 978204-PHASEB;
outer_diameter 0.980000;
neutral_resistance 14.872000;
neutral_diameter 0.064000;
shield_gmr 0.000000;
};
name 978204-LINECONFIG;
conductor_C object underground_line_conductor {
conductor_gmr 0.008830;
conductor_resistance 1.540000;
shield_resistance 0.000000;
neutral_gmr 0.002080;
neutral_strands 6.000000;
conductor_diameter 0.292000;
name 978204-PHASEC;
outer_diameter 0.980000;
neutral_resistance 14.872000;
neutral_diameter 0.064000;
shield_gmr 0.000000;
};
};
phases ABC;
from node978174978172;
name 978204;
to node978186978204;
length 66;
};

object overhead_line {
configuration object line_configuration {
spacing object line_spacing {
distance_BC 7.0;
name 978186-LINESPACING;
distance_CN 5.0;
distance_AC 4.5;
distance_AN 4.272002;
distance_AB 2.5;
distance_BN 5.656854;
};
conductor_A object overhead_line_conductor {
resistance 0.216;
geometric_mean_radius 0.0304;
};
conductor_B object overhead_line_conductor {
resistance 0.216;
geometric_mean_radius 0.0304;
};
name 978186-LINECONFIG;
conductor_N object overhead_line_conductor {
resistance 0.592;
geometric_mean_radius 0.00814;
};
conductor_C object overhead_line_conductor {
resistance 0.216;
geometric_mean_radius 0.0304;
};
};
phases ABCN;
from node978186978204;
name 978186;
to node978169978186;
length 270;
};

object overhead_line {
configuration object line_configuration {
spacing object line_spacing {
distance_BC 7.0;
name 978169-LINESPACING;
distance_CN 5.0;
distance_AC 4.5;
distance_AN 4.272002;
distance_AB 2.5;
distance_BN 5.656854;
};
conductor_A object overhead_line_conductor {
resistance 0.216;
geometric_mean_radius 0.0304;
};
conductor_B object overhead_line_conductor {
resistance 0.216;
geometric_mean_radius 0.0304;
};
name 978169-LINECONFIG;
conductor_N object overhead_line_conductor {
resistance 0.592;
geometric_mean_radius 0.00814;
};
conductor_C object overhead_line_conductor {
resistance 0.216;
geometric_mean_radius 0.0304;
};
};
phases ABCN;
from node978169978186;
name 978169;
to node978180978169;
length 230;
};

object overhead_line {
configuration object line_configuration {
spacing object line_spacing {
distance_BC 7.0;
name 978180-LINESPACING;
distance_CN 5.0;
distance_AC 4.5;
distance_AN 4.272002;
distance_AB 2.5;
distance_BN 5.656854;
};
conductor_A object overhead_line_conductor {
resistance 0.216;
geometric_mean_radius 0.0304;
};
conductor_B object overhead_line_conductor {
resistance 0.216;
geometric_mean_radius 0.0304;
};
name 978180-LINECONFIG;
conductor_N object overhead_line_conductor {
resistance 0.592;
geometric_mean_radius 0.00814;
};
conductor_C object overhead_line_conductor {
resistance 0.216;
geometric_mean_radius 0.0304;
};
};
phases ABCN;
from node978180978169;
name 978180;
to node978184978180;
length 180;
};

object overhead_line {
configuration object line_configuration {
spacing object line_spacing {
distance_BC 7.0;
name 978184-LINESPACING;
distance_CN 5.0;
distance_AC 4.5;
distance_AN 4.272002;
distance_AB 2.5;
distance_BN 5.656854;
};
conductor_A object overhead_line_conductor {
resistance 0.216;
geometric_mean_radius 0.0304;
};
conductor_B object overhead_line_conductor {
resistance 0.216;
geometric_mean_radius 0.0304;
};
name 978184-LINECONFIG;
conductor_N object overhead_line_conductor {
resistance 0.592;
geometric_mean_radius 0.00814;
};
conductor_C object overhead_line_conductor {
resistance 0.216;
geometric_mean_radius 0.0304;
};
};
phases ABCN;
from node978184978180;
name 978184;
to node978198978184;
length 188;
};

object overhead_line {
configuration object line_configuration {
spacing object line_spacing {
distance_BC 7.0;
name 978198-LINESPACING;
distance_CN 5.0;
distance_AC 4.5;
distance_AN 4.272002;
distance_AB 2.5;
distance_BN 5.656854;
};
conductor_A object overhead_line_conductor {
resistance 0.216;
geometric_mean_radius 0.0304;
};
conductor_B object overhead_line_conductor {
resistance 0.216;
geometric_mean_radius 0.0304;
};
name 978198-LINECONFIG;
conductor_N object overhead_line_conductor {
resistance 0.592;
geometric_mean_radius 0.00814;
};
conductor_C object overhead_line_conductor {
resistance 0.216;
geometric_mean_radius 0.0304;
};
};
phases ABCN;
from node978198978184;
name 978198;
to node978173978198;
length 297;
};

object overhead_line {
configuration object line_configuration {
spacing object line_spacing {
distance_BC 7.0;
name 978173-LINESPACING;
distance_CN 5.0;
distance_AC 4.5;
distance_AN 4.272002;
distance_AB 2.5;
distance_BN 5.656854;
};
conductor_A object overhead_line_conductor {
resistance 0.216;
geometric_mean_radius 0.0304;
};
conductor_B object overhead_line_conductor {
resistance 0.216;
geometric_mean_radius 0.0304;
};
name 978173-LINECONFIG;
conductor_N object overhead_line_conductor {
resistance 0.592;
geometric_mean_radius 0.00814;
};
conductor_C object overhead_line_conductor {
resistance 0.216;
geometric_mean_radius 0.0304;
};
};
phases ABCN;
from node978173978198;
name 978173;
to node978185978173;
length 225;
};

object overhead_line {
configuration object line_configuration {
spacing object line_spacing {
distance_BC 7.0;
name 978185-LINESPACING;
distance_CN 5.0;
distance_AC 4.5;
distance_AN 4.272002;
distance_AB 2.5;
distance_BN 5.656854;
};
conductor_A object overhead_line_conductor {
resistance 0.216;
geometric_mean_radius 0.0304;
};
conductor_B object overhead_line_conductor {
resistance 0.216;
geometric_mean_radius 0.0304;
};
name 978185-LINECONFIG;
conductor_N object overhead_line_conductor {
...